/*---------------------------------------------------------------------------*\
| =========                 |                                                 |
| \\      /  F ield         | OpenFOAM: The Open Source CFD Toolbox           |
|  \\    /   O peration     | Version:  1.4                                   |
|   \\  /    A nd           | Web:      http://www.openfoam.org               |
|    \\/     M anipulation  |                                                 |
\*---------------------------------------------------------------------------*/

FoamFile
{
    version         2.0;
    format          ascii;

    root            "";
    case            "";
    instance        "";
    local           "";

    class           dictionary;
    object          fvSolution;
}

// * * * * * * * * * * * * * * * * * * * * * * * * * * * * * * * * * * * * * //

solvers
{

    p GAMG
    {
        minIter                 0;
        maxIter                 50;
        tolerance               1e-10;
        relTol                  0;
        smoother                DIC;
        nPreSweeps              0;
        nPostSweeps             2;
        nFinestSweeps           2;
        scaleCorrection         true;
        directSolveCoarsest     false;
        cacheAgglomeration      true;
        nCellsInCoarsestLevel   10;
        agglomerator            faceAreaPair;
        mergeLevels             1;
    };
    U smoothSolver
    {
        smoother         GaussSeidel;
        nSweeps          2;
        tolerance        1e-7;
        relTol           0.1;
    };
    k smoothSolver
    {
        smoother         GaussSeidel;
        nSweeps          2;
        tolerance        1e-7;
        relTol           0.1;
    };
    epsilon smoothSolver
    {
        smoother         GaussSeidel;
        nSweeps          2;
        tolerance        1e-7;
        relTol           0.1;
    };
    omega smoothSolver
    {
        smoother         GaussSeidel;
        nSweeps          2;
        tolerance        1e-7;
        relTol           0.1;
    };
    tracer smoothSolver
    {
        smoother         GaussSeidel;
        nSweeps          2;
        tolerance        1e-7;
        relTol           0.1;
    };

}

SIMPLE
{
    nNonOrthogonalCorrectors {{{SpinBox: non-orthogonal correctors: 0,10,1: 2}}};
}

relaxationFactors
{
    p       {{{DoubleSpinBox: p relaxation factor      : 0,1,0.05,2: 0.3}}};
    U       {{{DoubleSpinBox: U relaxation factor      : 0,1,0.05,2: 0.7}}};
    k       {{{DoubleSpinBox: k relaxation factor      : 0,1,0.05,2: 0.7}}};
    epsilon {{{DoubleSpinBox: epsilon relaxation factor: 0,1,0.05,2: 0.7}}};
    omega   {{{DoubleSpinBox: omega relaxation factor  : 0,1,0.05,2: 0.7}}};
}


// ************************************************************************* //
