/*--------------------------------*- C++ -*----------------------------------*\
| =========                 |                                                 |
| \\      /  F ield         | OpenFOAM: The Open Source CFD Toolbox           |
|  \\    /   O peration     | Version:  1.5                                   |
|   \\  /    A nd           | Web:      http://www.OpenFOAM.org               |
|    \\/     M anipulation  |                                                 |
\*---------------------------------------------------------------------------*/
FoamFile
{
    version     2.0;
    format      ascii;
    class       dictionary;
    object      RASProperties;
}
// * * * * * * * * * * * * * * * * * * * * * * * * * * * * * * * * * * * * * //

RASModel       {{{ComboBox: turbulence model: (laminar, laminar), (k-epsilon, kEpsilon), (RNG k-epsilon, RNGkEpsilon), (SST, kOmegaSST): kOmegaSST}}};
turbulence     {{{ComboBox: freeze turbulent properties: (yes, off), (no, on): on}}};
printCoeffs    on;

laminarCoeffs
{
}

kEpsilonCoeffs
{
    Cmu              0.09;
    C1               1.44;
    C2               1.92;
    C3               -0.33;
    alphah           1;
    alphak           1;
    alphaEps         0.76923;
}

RNGkEpsilonCoeffs
{
    Cmu              0.0845;
    C1               1.42;
    C2               1.68;
    C3               -0.33;
    alphah           1;
    alphak           1.39;
    alphaEps         1.39;
    eta0             4.38;
    beta             0.012;
}

LaunderSharmaKECoeffs
{
    Cmu              0.09;
    C1               1.44;
    C2               1.92;
    C3               -0.33;
    alphah           1;
    alphak           1;
    alphaEps         0.76923;
}

LRRCoeffs
{
    Cmu              0.09;
    Clrr1            1.8;
    Clrr2            0.6;
    C1               1.44;
    C2               1.92;
    Cs               0.25;
    Ceps             0.15;
    alphah           1;
    alphaEps         0.76923;
    alphaR           1.22;
}

LaunderGibsonRSTMCoeffs
{
    Cmu              0.09;
    Clg1             1.8;
    Clg2             0.6;
    C1               1.44;
    C2               1.92;
    C1Ref            0.5;
    C2Ref            0.3;
    Cs               0.25;
    Ceps             0.15;
    alphah           1;
    alphaEps         0.76923;
    alphaR           1.22;
}

kOmegaSSTCoeffs
{
    alphaK1          0.85034;
    alphaK2          1.0;
    alphaOmega1      0.5;
    alphaOmega2      0.85616;
    gamma1           0.5532;
    gamma2           0.4403;
    beta1            0.0750;
    beta2            0.0828;
    betaStar         0.09;
    a1               0.31;
    c1               10;

    Cmu              0.09;
}


wallFunctionCoeffs
{
    kappa            0.4187;
    E                9;
}

// ************************************************************************* //
