/*--------------------------------*- C++ -*----------------------------------*\
| =========                 |                                                 |
| \\      /  F ield         | OpenFOAM: The Open Source CFD Toolbox           |
|  \\    /   O peration     | Version:  1.5                                   |
|   \\  /    A nd           | Web:      http://www.OpenFOAM.org               |
|    \\/     M anipulation  |                                                 |
\*---------------------------------------------------------------------------*/
FoamFile
{
    version     2.0;
    format      ascii;
    class       dictionary;
    object      thermophysicalProperties;
}
// * * * * * * * * * * * * * * * * * * * * * * * * * * * * * * * * * * * * * //

thermoType hThermo<pureMixture<sutherlandTransport<specieThermo<hConstThermo<perfectGas> > > > >;
mixture air 1 <<<DoubleLineEdit: molar mass: : 28.96>>> <<<DoubleLineEdit: specific heat at constant pressure: : 1004.5>>> 0 <<<DoubleLineEdit: Sutherland constant: : 1.458e-06>>> <<<DoubleLineEdit: Sutherland temperature: : 110.4>>>;

// ************************************************************************* //
