/*--------------------------------*- C++ -*----------------------------------*\
| =========                 |                                                 |
| \\      /  F ield         | OpenFOAM: The Open Source CFD Toolbox           |
|  \\    /   O peration     | Version:  1.5                                   |
|   \\  /    A nd           | Web:      http://www.OpenFOAM.org               |
|    \\/     M anipulation  |                                                 |
\*---------------------------------------------------------------------------*/
FoamFile
{
    version     2.0;
    format      ascii;
    class       dictionary;
    object      transportProperties;
}
// * * * * * * * * * * * * * * * * * * * * * * * * * * * * * * * * * * * * * //

transportModel  Newtonian;

nu              nu [0 2 -1 0 0 0 0] <<<DoubleLineEdit: kinematic viscosity: : 1e-6>>>;

CrossPowerLawCoeffs
{
    nu0             nu0 [0 2 -1 0 0 0 0] 1e-06;
    nuInf           nuInf [0 2 -1 0 0 0 0] 1e-06;
    m               m [0 0 1 0 0 0 0] 1;
    n               n [0 0 0 0 0 0 0] 1;
}

BirdCarreauCoeffs
{
    nu0             nu0 [0 2 -1 0 0 0 0] 1e-06;
    nuInf           nuInf [0 2 -1 0 0 0 0] 1e-06;
    k               k [0 0 1 0 0 0 0] 0;
    n               n [0 0 0 0 0 0 0] 1;
}

// ************************************************************************* //
