/*---------------------------------------------------------------------------*\
| =========                 |                                                 |
| \\      /  F ield         | OpenFOAM: The Open Source CFD Toolbox           |
|  \\    /   O peration     | Version:  1.4                                   |
|   \\  /    A nd           | Web:      http://www.openfoam.org               |
|    \\/     M anipulation  |                                                 |
\*---------------------------------------------------------------------------*/

FoamFile
{
    version         2.0;
    format          ascii;

    root            "";
    case            "";
    instance        "";
    local           "";

    class           dictionary;
    object          fvSolution;
}

// * * * * * * * * * * * * * * * * * * * * * * * * * * * * * * * * * * * * * //

solvers
{
    p PCG
    {
        preconditioner   DIC;
        tolerance        1e-6;
        relTol           1e-4;
    };
    U PBiCG
    {
        preconditioner   DILU;
        tolerance        1e-05;
        relTol           0.1;
    };
    h PBiCG
    {
        preconditioner   DILU;
        tolerance        1e-05;
        relTol           0.1;
    };
    k PBiCG
    {
        preconditioner   DILU;
        tolerance        1e-05;
        relTol           0.1;
    };
    omega PBiCG
    {
        preconditioner   DILU;
        tolerance        1e-05;
        relTol           0.1;
    };
    epsilon PBiCG
    {
      preconditioner   DILU;
      tolerance        1e-05;
      relTol           0.1;
    };
}

SIMPLE
{
    nNonOrthogonalCorrectors <<<SpinBox: non-orthogonal correctors: 0,10,1: 2>>>;
    pMin pMin [1 -1 -2 0 0 0 0] <<<DoubleLineEdit: minimal pressure: : 1000>>>;
}

relaxationFactors
{
    p       <<<DoubleSpinBox: p relaxation factor      : 0,1,0.05,2: 0.3>>>;
    U       <<<DoubleSpinBox: U relaxation factor      : 0,1,0.05,2: 0.7>>>;
    h       <<<DoubleSpinBox: h relaxation factor      : 0,1,0.05,2: 0.7>>>;
    k       <<<DoubleSpinBox: k relaxation factor      : 0,1,0.05,2: 0.7>>>;
    epsilon <<<DoubleSpinBox: epsilon relaxation factor: 0,1,0.05,2: 0.7>>>;
    omega   <<<DoubleSpinBox: omega relaxation factor  : 0,1,0.05,2: 0.7>>>;
}


// ************************************************************************* //
